<?xml version="1.0" encoding="UTF-8"?>

<!-- generated on 2026-02-14T19:11:29.141223+05:30 by Eclipse SUMO sumo 1.26.0
-->

<sumoConfiguration xmlns:xsi="http://www.w3.org/2001/XMLSchema-instance" xsi:noNamespaceSchemaLocation="http://sumo.dlr.de/xsd/sumoConfiguration.xsd">

    <input>
        <net-file value="sample.net.xml"/>
        <route-files value="sample.rou.xml"/>
    </input>

</sumoConfiguration>
