<?xml version="1.0" encoding="UTF-8"?>

<!-- generated on 2026-02-14T20:48:59.007437+05:30 by Eclipse SUMO netedit 1.26.0
-->

<routes xmlns:xsi="http://www.w3.org/2001/XMLSchema-instance" xsi:noNamespaceSchemaLocation="http://sumo.dlr.de/xsd/routes_file.xsd">
    <!-- Vehicles, persons and containers (sorted by depart) -->
    <trip id="t_0" depart="0.00" from="E1" to="E2"/>
    <flow id="f_0" begin="0.00" end="3600.00" number="500" color="grey" from="-E1" to="E2"/>
    <flow id="f_1" begin="0.00" end="3600.00" number="500" color="grey" from="-E1" to="E2"/>
    <flow id="f_2" begin="0.00" end="3600.00" number="500" color="blue" from="-E2" to="-E1.47"/>
    <flow id="f_3" type="DEFAULT_BIKETYPE" begin="0.00" end="3600.00" number="900" color="blue" from="-E2" to="E1.35"/>
    <flow id="f_4" type="DEFAULT_CONTAINERTYPE" begin="0.00" end="3600.00" number="2000" color="blue" from="E1" to="E1.35"/>
    <flow id="f_5" type="DEFAULT_CONTAINERTYPE" begin="0.00" end="3600.00" number="2000" color="blue" from="E1" to="E1.35"/>
    <flow id="f_6" begin="0.00" end="3600.00" number="2000" color="blue" from="E1" to="E1.35"/>
</routes>
