<?xml version="1.0" encoding="UTF-8"?>

<!-- generated on 2026-02-15T07:46:54.283596+05:30 by Eclipse SUMO netedit 1.26.0
<neteditConfiguration xmlns:xsi="http://www.w3.org/2001/XMLSchema-instance" xsi:noNamespaceSchemaLocation="http://sumo.dlr.de/xsd/neteditConfiguration.xsd">

    <input>
        <sumo-net-file value="C:\Users\Aswajith S\OneDrive\Documents\RSL\sumo_test\simple.net.xml"/>
    </input>

    <output>
        <output-file value="C:\Users\Aswajith S\OneDrive\Documents\RSL\sumo_test\simple.net.xml"/>
    </output>

    <processing>
        <geometry.min-radius.fix.railways value="false"/>
        <geometry.avoid-overlap value="false"/>
        <geometry.max-grade.fix value="false"/>
        <offset.disable-normalization value="true"/>
        <lefthand value="0"/>
    </processing>

    <junctions>
        <no-internal-links value="false"/>
        <no-turnarounds value="true"/>
        <junctions.corner-detail value="5"/>
        <junctions.limit-turn-speed value="5.50"/>
        <rectangular-lane-cut value="0"/>
    </junctions>

    <pedestrian>
        <walkingareas value="0"/>
    </pedestrian>

</neteditConfiguration>
-->

<net version="1.20" junctionCornerDetail="5" limitTurnSpeed="5.50" avoidOverlap="0" xmlns:xsi="http://www.w3.org/2001/XMLSchema-instance" xsi:noNamespaceSchemaLocation="http://sumo.dlr.de/xsd/net_file.xsd">

    <location netOffset="0.00,0.00" convBoundary="-1652.69,-551.07,929.38,378.81" origBoundary="-10000000000.00,-10000000000.00,10000000000.00,10000000000.00" projParameter="!"/>

    <edge id=":J31_0" function="internal">
        <lane id=":J31_0_0" index="0" disallow="pedestrian" speed="4.35" length="1.11" shape="-13.84,134.69 -14.04,134.43 -14.14,134.22 -14.18,134.00 -14.19,133.68"/>
    </edge>
    <edge id=":J31_w0" function="walkingarea">
        <lane id=":J31_w0_0" index="0" allow="pedestrian" speed="2.78" length="2.81" width="2.00" shape="-15.79,133.66 -17.79,133.64 -17.79,134.40 -17.74,134.97 -17.64,135.43 -17.44,135.86 -17.12,136.33 -16.66,136.93 -15.09,135.68 -15.38,135.32 -15.57,135.02 -15.69,134.76 -15.76,134.47 -15.79,134.12"/>
    </edge>
    <edge id=":J6_0" function="internal">
        <lane id=":J6_0_0" index="0" disallow="pedestrian" speed="5.37" length="5.58" shape="-7.29,121.52 -7.07,123.02 -6.42,124.11 -5.35,124.80 -3.86,125.08"/>
    </edge>
    <edge id=":J6_w0" function="walkingarea">
        <lane id=":J6_w0_0" index="0" allow="pedestrian" speed="2.78" length="1.37" width="2.00" shape="-3.78,123.49 -3.69,121.49 -5.69,121.50 -5.63,122.09 -5.47,122.57 -5.21,122.95 -4.84,123.23 -4.36,123.41"/>
    </edge>
    <edge id=":clusterJ0_J103_0" function="internal">
        <lane id=":clusterJ0_J103_0_0" index="0" disallow="pedestrian" speed="7.65" length="12.69" shape="-186.67,0.34 -182.31,-0.01 -179.18,-1.05 -177.29,-2.76 -176.63,-5.14"/>
    </edge>
    <edge id=":clusterJ0_J103_1" function="internal">
        <lane id=":clusterJ0_J103_1_0" index="0" disallow="pedestrian" speed="13.89" length="13.49" shape="-186.67,0.34 -173.16,0.74"/>
        <lane id=":clusterJ0_J103_1_1" index="1" disallow="pedestrian" speed="13.89" length="13.49" shape="-186.66,3.54 -173.17,3.94"/>
        <lane id=":clusterJ0_J103_1_2" index="2" disallow="pedestrian" speed="13.89" length="13.49" shape="-186.65,6.74 -173.19,7.14"/>
    </edge>
    <edge id=":clusterJ0_J103_w1" function="walkingarea">
        <lane id=":clusterJ0_J103_w1_0" index="0" allow="pedestrian" speed="2.78" length="8.00" width="2.00" shape="-178.23,-5.17 -180.22,-5.20 -186.68,-3.26 -186.67,-1.26 -184.11,-1.38 -182.01,-1.71 -180.37,-2.25 -179.19,-3.01 -178.48,-3.98"/>
    </edge>
    <edge id=":clusterJ101_J87_J88_J90_0" function="internal">
        <lane id=":clusterJ101_J87_J88_J90_0_0" index="0" disallow="pedestrian" speed="6.51" length="10.51" shape="-241.69,-266.11 -243.33,-268.82 -245.26,-270.22 -247.45,-270.28 -249.92,-269.02"/>
    </edge>
    <edge id=":clusterJ101_J87_J88_J90_1" function="internal">
        <lane id=":clusterJ101_J87_J88_J90_1_0" index="0" disallow="pedestrian" speed="13.89" length="16.10" shape="-241.69,-266.11 -243.99,-270.36 -245.80,-273.41 -246.61,-276.51 -245.87,-280.96"/>
    </edge>
    <edge id=":clusterJ101_J87_J88_J90_2" function="internal">
        <lane id=":clusterJ101_J87_J88_J90_2_0" index="0" disallow="pedestrian" speed="12.77" length="10.90" shape="-252.91,-273.09 -250.24,-274.93 -248.38,-276.31 -247.02,-278.04 -245.87,-280.96"/>
    </edge>
    <edge id=":clusterJ101_J87_J88_J90_w0" function="walkingarea">
        <lane id=":clusterJ101_J87_J88_J90_w0_0" index="0" allow="pedestrian" speed="2.78" length="4.71" width="2.00" shape="-248.97,-267.74 -247.78,-266.13 -244.97,-264.64 -243.15,-265.46 -243.92,-266.89 -244.78,-267.91 -245.71,-268.50 -246.72,-268.67 -247.80,-268.41"/>
    </edge>
    <edge id=":clusterJ101_J87_J88_J90_w1" function="walkingarea">
        <lane id=":clusterJ101_J87_J88_J90_w1_0" index="0" allow="pedestrian" speed="2.78" length="8.94" width="2.00" shape="-247.40,-281.42 -249.32,-282.00 -255.05,-275.98 -253.86,-274.37 -252.15,-275.56 -250.79,-276.45 -249.71,-277.25 -248.84,-278.19 -248.10,-279.51"/>
    </edge>
    <edge id=":clusterJ102_J89_J92_0" function="internal">
        <lane id=":clusterJ102_J89_J92_0_0" index="0" disallow="pedestrian" speed="7.00" length="18.42" shape="-447.89,-122.93 -451.52,-119.46 -451.54,-117.05 -447.97,-115.71 -440.79,-115.43"/>
    </edge>
    <edge id=":clusterJ102_J89_J92_1" function="internal">
        <lane id=":clusterJ102_J89_J92_1_0" index="0" disallow="pedestrian" speed="7.57" length="9.70" shape="-459.70,-125.70 -457.73,-124.73 -455.59,-124.59 -453.26,-125.27 -450.75,-126.78"/>
    </edge>
    <edge id=":clusterJ102_J89_J92_2" function="internal">
        <lane id=":clusterJ102_J89_J92_2_0" index="0" disallow="pedestrian" speed="13.89" length="22.22" shape="-459.70,-125.70 -454.75,-121.55 -450.97,-118.23 -446.83,-116.08 -440.79,-115.43"/>
    </edge>
    <edge id=":clusterJ102_J89_J92_w0" function="walkingarea">
        <lane id=":clusterJ102_J89_J92_w0_0" index="0" allow="pedestrian" speed="2.78" length="6.16" width="2.00" shape="-440.84,-117.03 -440.89,-119.03 -445.75,-120.03 -446.94,-121.64 -447.38,-120.77 -446.84,-119.76 -445.62,-118.74 -444.01,-117.86 -442.32,-117.24"/>
    </edge>
    <edge id=":clusterJ102_J89_J92_w1" function="walkingarea">
        <lane id=":clusterJ102_J89_J92_w1_0" index="0" allow="pedestrian" speed="2.78" length="5.96" width="2.00" shape="-451.70,-128.07 -452.89,-129.68 -457.56,-128.60 -458.75,-126.99 -457.78,-126.44 -456.72,-126.19 -455.59,-126.23 -454.37,-126.55 -453.07,-127.17"/>
    </edge>
    <edge id=":clusterJ104_J105_J107_J109_#2more_0" function="internal">
        <lane id=":clusterJ104_J105_J107_J109_#2more_0_0" index="0" disallow="pedestrian" speed="13.89" length="61.33" shape="-1118.62,21.79 -1179.97,21.79"/>
        <lane id=":clusterJ104_J105_J107_J109_#2more_0_1" index="1" disallow="pedestrian" speed="13.89" length="61.33" shape="-1118.63,18.59 -1179.96,18.59"/>
        <lane id=":clusterJ104_J105_J107_J109_#2more_0_2" index="2" disallow="pedestrian" speed="13.89" length="61.33" shape="-1118.64,15.39 -1179.95,15.39"/>
    </edge>
    <edge id=":clusterJ104_J105_J107_J109_#2more_3" function="internal">
        <lane id=":clusterJ104_J105_J107_J109_#2more_3_0" index="0" disallow="pedestrian" speed="10.62" length="9.47" shape="-1118.64,15.39 -1127.63,12.43"/>
        <lane id=":clusterJ104_J105_J107_J109_#2more_3_1" index="1" disallow="pedestrian" speed="10.15" length="9.34" shape="-1118.64,15.39 -1127.49,12.42"/>
    </edge>
    <edge id=":clusterJ104_J105_J107_J109_#2more_13" function="internal">
        <lane id=":clusterJ104_J105_J107_J109_#2more_13_0" index="0" disallow="pedestrian" speed="10.62" length="37.69" shape="-1127.63,12.43 -1130.56,11.47 -1136.79,2.12 -1136.24,-8.92 -1127.82,-17.92"/>
        <lane id=":clusterJ104_J105_J107_J109_#2more_13_1" index="0" disallow="pedestrian" speed="10.15" length="33.57" shape="-1127.49,12.42 -1129.38,11.79 -1134.82,3.23 -1134.09,-6.88 -1126.32,-15.09"/>
    </edge>
    <edge id=":clusterJ104_J105_J107_J109_#2more_5" function="internal">
        <lane id=":clusterJ104_J105_J107_J109_#2more_5_0" index="0" disallow="pedestrian" speed="6.82" length="2.48" shape="-1120.61,-4.29 -1122.70,-2.96"/>
    </edge>
    <edge id=":clusterJ104_J105_J107_J109_#2more_6" function="internal">
        <lane id=":clusterJ104_J105_J107_J109_#2more_6_0" index="0" disallow="pedestrian" speed="13.89" length="63.95" shape="-1120.61,-4.29 -1134.52,3.76 -1149.41,12.30 -1164.74,19.07 -1179.97,21.79"/>
        <lane id=":clusterJ104_J105_J107_J109_#2more_6_1" index="1" disallow="pedestrian" speed="13.89" length="63.95" shape="-1122.10,-7.12 -1135.78,0.87 -1150.15,9.29 -1164.96,15.93 -1179.96,18.59"/>
        <lane id=":clusterJ104_J105_J107_J109_#2more_6_2" index="2" disallow="pedestrian" speed="13.89" length="63.95" shape="-1123.60,-9.95 -1137.04,-2.02 -1150.89,6.27 -1165.19,12.78 -1179.95,15.39"/>
    </edge>
    <edge id=":clusterJ104_J105_J107_J109_#2more_14" function="internal">
        <lane id=":clusterJ104_J105_J107_J109_#2more_14_0" index="0" disallow="pedestrian" speed="6.82" length="15.86" shape="-1122.70,-2.96 -1125.97,-0.89 -1127.43,1.53 -1125.00,2.97 -1118.68,3.43"/>
    </edge>
    <edge id=":clusterJ104_J105_J107_J109_#2more_9" function="internal">
        <lane id=":clusterJ104_J105_J107_J109_#2more_9_0" index="0" disallow="pedestrian" speed="13.89" length="53.29" shape="-1179.91,4.46 -1166.05,1.88 -1153.74,-4.60 -1141.86,-12.85 -1132.71,-18.61"/>
    </edge>
    <edge id=":clusterJ104_J105_J107_J109_#2more_10" function="internal">
        <lane id=":clusterJ104_J105_J107_J109_#2more_10_0" index="0" disallow="pedestrian" speed="13.89" length="61.26" shape="-1179.91,4.46 -1118.68,3.43"/>
        <lane id=":clusterJ104_J105_J107_J109_#2more_10_1" index="1" disallow="pedestrian" speed="13.89" length="61.26" shape="-1179.92,7.66 -1118.67,6.63"/>
        <lane id=":clusterJ104_J105_J107_J109_#2more_10_2" index="2" disallow="pedestrian" speed="13.89" length="61.26" shape="-1179.93,10.86 -1118.66,9.83"/>
    </edge>
    <edge id=":clusterJ104_J105_J107_J109_#2more_15" function="internal">
        <lane id=":clusterJ104_J105_J107_J109_#2more_15_0" index="0" disallow="pedestrian" speed="13.89" length="4.01" shape="-1132.71,-18.61 -1129.31,-20.75"/>
    </edge>
    <edge id=":clusterJ104_J105_J107_J109_#2more_c0" function="crossing" crossingEdges="E49 -E0">
        <lane id=":clusterJ104_J105_J107_J109_#2more_c0_0" index="0" allow="pedestrian" speed="2.78" length="21.56" width="4.00" shape="-1120.68,1.83 -1120.61,23.40" outlineShape="-1118.68,1.73 -1118.61,23.49 -1122.61,25.39 -1118.61,25.39 -1118.61,23.39 -1122.61,23.40 -1122.68,1.84 -1120.44,-0.44 -1120.41,-0.24 -1120.02,0.78 -1119.43,1.53"/>
    </edge>
    <edge id=":clusterJ104_J105_J107_J109_#2more_c1" function="crossing" crossingEdges="E39 E50">
        <lane id=":clusterJ104_J105_J107_J109_#2more_c1_0" index="0" allow="pedestrian" speed="2.78" length="21.83" width="4.00" shape="-1131.83,-21.23 -1121.62,-1.94" outlineShape="-1130.06,-22.16 -1119.85,-2.87 -1119.81,-2.78 -1119.86,-2.87 -1120.38,-2.26 -1120.54,-1.32 -1120.41,-0.24 -1120.34,-0.04 -1123.39,-1.00 -1133.60,-20.29 -1133.48,-20.06"/>
    </edge>
    <edge id=":clusterJ104_J105_J107_J109_#2more_c2" function="crossing" crossingEdges="E51 E52">
        <lane id=":clusterJ104_J105_J107_J109_#2more_c2_0" index="0" allow="pedestrian" speed="2.78" length="20.53" width="4.00" shape="-1177.97,23.40 -1177.90,2.87" outlineShape="-1179.97,23.49 -1179.90,2.77 -1175.90,2.49 -1175.97,23.41 -1179.97,23.40 -1179.98,25.39 -1118.61,25.39 -1118.61,23.39 -1122.61,23.40 -1175.97,23.41"/>
    </edge>
    <edge id=":clusterJ104_J105_J107_J109_#2more_w0" function="walkingarea">
        <lane id=":clusterJ104_J105_J107_J109_#2more_w0_0" index="0" allow="pedestrian" speed="2.78" length="40.32" width="4.00" shape="-1175.97,23.41 -1179.97,23.39 -1179.98,25.39 -1118.61,25.39 -1118.61,23.39 -1122.61,23.40"/>
    </edge>
    <edge id=":clusterJ104_J105_J107_J109_#2more_w1" function="walkingarea">
        <lane id=":clusterJ104_J105_J107_J109_#2more_w1_0" index="0" allow="pedestrian" speed="2.78" length="3.22" width="4.00" shape="-1118.68,1.83 -1118.69,-0.17 -1118.92,-1.11 -1119.86,-2.87 -1120.38,-2.26 -1120.54,-1.32 -1120.41,-0.24 -1120.02,0.78 -1119.43,1.53"/>
    </edge>
    <edge id=":clusterJ104_J105_J107_J109_#2more_w2" function="walkingarea">
        <lane id=":clusterJ104_J105_J107_J109_#2more_w2_0" index="0" allow="pedestrian" speed="2.78" length="36.52" width="4.00" shape="-1130.06,-22.16 -1131.00,-23.93 -1179.90,0.86 -1179.90,2.86 -1169.06,1.86 -1160.78,-0.98 -1153.89,-5.22 -1147.25,-10.46 -1139.69,-16.24"/>
    </edge>
    <edge id=":clusterJ106_J79_0" function="internal">
        <lane id=":clusterJ106_J79_0_0" index="0" disallow="pedestrian" speed="6.19" length="10.85" shape="-634.61,-263.09 -637.22,-261.22 -638.20,-259.24 -637.53,-257.12 -635.23,-254.89"/>
    </edge>
    <edge id=":clusterJ106_J79_1" function="internal">
        <lane id=":clusterJ106_J79_1_0" index="0" disallow="pedestrian" speed="13.89" length="14.43" shape="-634.61,-263.09 -647.19,-256.05"/>
        <lane id=":clusterJ106_J79_1_1" index="1" disallow="pedestrian" speed="13.89" length="14.43" shape="-636.10,-265.92 -648.69,-258.87"/>
        <lane id=":clusterJ106_J79_1_2" index="2" disallow="pedestrian" speed="13.89" length="14.43" shape="-637.59,-268.75 -650.19,-261.70"/>
    </edge>
    <edge id=":clusterJ106_J79_w0" function="walkingarea">
        <lane id=":clusterJ106_J79_w0_0" index="0" allow="pedestrian" speed="2.78" length="3.82" width="2.00" shape="-634.28,-256.18 -633.10,-257.79 -632.94,-259.90 -633.87,-261.67 -635.16,-260.85 -635.96,-259.99 -636.27,-259.09 -636.10,-258.16 -635.43,-257.18"/>
    </edge>
    <edge id=":clusterJ17_J2_J52_J58_#1more_0" function="internal">
        <lane id=":clusterJ17_J2_J52_J58_#1more_0_0" index="0" disallow="pedestrian" speed="5.96" length="12.45" shape="191.12,-131.17 189.90,-127.98 190.57,-126.35 193.14,-126.27 197.61,-127.75"/>
    </edge>
    <edge id=":clusterJ17_J2_J52_J58_#1more_1" function="internal">
        <lane id=":clusterJ17_J2_J52_J58_#1more_1_0" index="0" disallow="pedestrian" speed="13.89" length="12.27" shape="191.12,-131.17 190.28,-128.36 190.87,-126.25 191.92,-124.02 192.48,-120.86"/>
        <lane id=":clusterJ17_J2_J52_J58_#1more_1_1" index="1" disallow="pedestrian" speed="13.89" length="12.27" shape="188.31,-132.69 187.26,-129.48 187.73,-127.05 188.73,-124.49 189.28,-120.87"/>
        <lane id=":clusterJ17_J2_J52_J58_#1more_1_2" index="2" disallow="pedestrian" speed="13.89" length="12.27" shape="185.49,-134.22 184.24,-130.60 184.59,-127.86 185.55,-124.96 186.08,-120.88"/>
    </edge>
    <edge id=":clusterJ17_J2_J52_J58_#1more_4" function="internal">
        <lane id=":clusterJ17_J2_J52_J58_#1more_4_0" index="0" disallow="pedestrian" speed="12.80" length="3.69" shape="185.49,-134.22 183.09,-131.42"/>
    </edge>
    <edge id=":clusterJ17_J2_J52_J58_#1more_10" function="internal">
        <lane id=":clusterJ17_J2_J52_J58_#1more_10_0" index="0" disallow="pedestrian" speed="12.80" length="19.57" shape="183.09,-131.42 182.62,-130.87 178.17,-128.47 172.15,-127.01 164.56,-126.49"/>
    </edge>
    <edge id=":clusterJ17_J2_J52_J58_#1more_5" function="internal">
        <lane id=":clusterJ17_J2_J52_J58_#1more_5_0" index="0" disallow="pedestrian" speed="7.86" length="13.71" shape="175.60,-120.92 174.92,-123.38 172.85,-125.13 169.39,-126.17 164.56,-126.49"/>
    </edge>
    <edge id=":clusterJ17_J2_J52_J58_#1more_6" function="internal">
        <lane id=":clusterJ17_J2_J52_J58_#1more_6_0" index="0" disallow="pedestrian" speed="13.89" length="17.04" shape="175.60,-120.92 175.15,-126.46 174.47,-130.40 174.60,-134.13 176.57,-139.05"/>
        <lane id=":clusterJ17_J2_J52_J58_#1more_6_1" index="1" disallow="pedestrian" speed="13.89" length="17.04" shape="178.80,-120.91 178.34,-125.98 177.62,-129.59 177.63,-133.01 179.39,-137.52"/>
        <lane id=":clusterJ17_J2_J52_J58_#1more_6_2" index="2" disallow="pedestrian" speed="13.89" length="17.04" shape="182.00,-120.90 181.53,-125.51 180.76,-128.79 180.65,-131.90 182.20,-136.00"/>
    </edge>
    <edge id=":clusterJ17_J2_J52_J58_#1more_9" function="internal">
        <lane id=":clusterJ17_J2_J52_J58_#1more_9_0" index="0" disallow="pedestrian" speed="10.36" length="2.27" shape="182.00,-120.90 183.93,-122.10"/>
    </edge>
    <edge id=":clusterJ17_J2_J52_J58_#1more_11" function="internal">
        <lane id=":clusterJ17_J2_J52_J58_#1more_11_0" index="0" disallow="pedestrian" speed="10.36" length="14.81" shape="183.93,-122.10 184.31,-122.34 189.46,-124.55 194.78,-126.66 197.61,-127.75"/>
    </edge>
    <edge id=":clusterJ17_J2_J52_J58_#1more_c0" function="crossing" crossingEdges="E27 E26">
        <lane id=":clusterJ17_J2_J52_J58_#1more_c0_0" index="0" allow="pedestrian" speed="2.78" length="19.73" width="4.00" shape="174.21,-138.05 191.56,-128.65" outlineShape="175.08,-139.86 192.60,-130.36 192.05,-129.28 192.06,-128.52 192.56,-128.14 190.61,-126.89 173.26,-136.29 173.17,-136.34"/>
    </edge>
    <edge id=":clusterJ17_J2_J52_J58_#1more_c1" function="crossing" crossingEdges="-E1 E1">
        <lane id=":clusterJ17_J2_J52_J58_#1more_c1_0" index="0" allow="pedestrian" speed="2.78" length="20.08" width="4.00" shape="194.08,-122.85 174.01,-122.92" outlineShape="194.08,-120.85 174.00,-120.92 173.90,-120.93 174.00,-120.93 173.74,-122.15 172.96,-123.15 171.65,-123.93 174.01,-124.92 194.09,-124.85 195.87,-124.84 195.12,-124.06 194.54,-123.10 194.20,-122.03"/>
    </edge>
    <edge id=":clusterJ17_J2_J52_J58_#1more_w0" function="walkingarea">
        <lane id=":clusterJ17_J2_J52_J58_#1more_w0_0" index="0" allow="pedestrian" speed="2.78" length="2.25" width="4.00" shape="194.28,-129.45 192.53,-130.41 192.05,-129.28 192.06,-128.52 192.56,-128.14 193.55,-128.13 195.03,-128.49"/>
    </edge>
    <edge id=":clusterJ17_J2_J52_J58_#1more_w1" function="walkingarea">
        <lane id=":clusterJ17_J2_J52_J58_#1more_w1_0" index="0" allow="pedestrian" speed="2.78" length="2.24" width="4.00" shape="175.17,-139.81 173.41,-140.76 166.03,-128.42 167.63,-129.41 169.35,-131.03 171.17,-133.31 173.11,-136.24"/>
    </edge>
    <edge id=":clusterJ17_J2_J52_J58_#1more_w2" function="walkingarea">
        <lane id=":clusterJ17_J2_J52_J58_#1more_w2_0" index="0" allow="pedestrian" speed="2.78" length="6.88" width="4.00" shape="164.57,-124.89 164.58,-122.89 172.00,-120.93 174.00,-120.93 173.74,-122.15 172.96,-123.15 171.65,-123.93 169.81,-124.48 167.45,-124.80"/>
    </edge>
    <edge id=":clusterJ17_J2_J52_J58_#1more_w3" function="walkingarea">
        <lane id=":clusterJ17_J2_J52_J58_#1more_w3_0" index="0" allow="pedestrian" speed="2.78" length="2.24" width="4.00" shape="194.08,-120.85 196.08,-120.84 196.96,-125.64 195.92,-124.90 195.12,-124.06 194.54,-123.10 194.20,-122.03"/>
    </edge>
    <edge id=":clusterJ1_J15_J18_clusterJ14_J20_0" function="internal">
        <lane id=":clusterJ1_J15_J18_clusterJ14_J20_0_0" index="0" disallow="pedestrian" speed="6.61" length="4.93" shape="198.44,19.71 196.03,20.13 194.30,21.26 194.09,21.63"/>
    </edge>
    <edge id=":clusterJ1_J15_J18_clusterJ14_J20_1" function="internal">
        <lane id=":clusterJ1_J15_J18_clusterJ14_J20_1_0" index="0" disallow="pedestrian" speed="13.89" length="28.57" shape="198.44,19.71 169.78,19.86"/>
        <lane id=":clusterJ1_J15_J18_clusterJ14_J20_1_1" index="1" disallow="pedestrian" speed="13.89" length="28.57" shape="198.37,16.52 169.79,16.66"/>
        <lane id=":clusterJ1_J15_J18_clusterJ14_J20_1_2" index="2" disallow="pedestrian" speed="13.89" length="28.57" shape="198.29,13.32 169.80,13.46"/>
    </edge>
    <edge id=":clusterJ1_J15_J18_clusterJ14_J20_4" function="internal">
        <lane id=":clusterJ1_J15_J18_clusterJ14_J20_4_0" index="0" disallow="pedestrian" speed="10.83" length="10.11" shape="198.29,13.32 191.08,12.38 188.67,10.88"/>
    </edge>
    <edge id=":clusterJ1_J15_J18_clusterJ14_J20_20" function="internal">
        <lane id=":clusterJ1_J15_J18_clusterJ14_J20_20_0" index="0" disallow="pedestrian" speed="6.61" length="4.24" shape="194.09,21.63 193.26,23.09 192.91,25.63"/>
    </edge>
    <edge id=":clusterJ1_J15_J18_clusterJ14_J20_21" function="internal">
        <lane id=":clusterJ1_J15_J18_clusterJ14_J20_21_0" index="0" disallow="pedestrian" speed="10.83" length="17.28" shape="188.67,10.88 185.94,9.18 182.85,3.73 181.83,-4.00"/>
    </edge>
    <edge id=":clusterJ1_J15_J18_clusterJ14_J20_5" function="internal">
        <lane id=":clusterJ1_J15_J18_clusterJ14_J20_5_0" index="0" disallow="pedestrian" speed="6.56" length="5.15" shape="192.03,-3.98 192.40,-1.50 193.52,0.25 194.01,0.52"/>
    </edge>
    <edge id=":clusterJ1_J15_J18_clusterJ14_J20_6" function="internal">
        <lane id=":clusterJ1_J15_J18_clusterJ14_J20_6_0" index="0" disallow="pedestrian" speed="13.89" length="29.62" shape="192.03,-3.98 192.91,25.63"/>
        <lane id=":clusterJ1_J15_J18_clusterJ14_J20_6_1" index="1" disallow="pedestrian" speed="13.89" length="29.62" shape="188.83,-3.99 189.71,25.62"/>
        <lane id=":clusterJ1_J15_J18_clusterJ14_J20_6_2" index="2" disallow="pedestrian" speed="13.89" length="29.62" shape="185.63,-3.99 186.51,25.61"/>
    </edge>
    <edge id=":clusterJ1_J15_J18_clusterJ14_J20_9" function="internal">
        <lane id=":clusterJ1_J15_J18_clusterJ14_J20_9_0" index="0" disallow="pedestrian" speed="10.83" length="8.04" shape="185.63,-3.99 184.61,3.66 184.46,3.94"/>
    </edge>
    <edge id=":clusterJ1_J15_J18_clusterJ14_J20_22" function="internal">
        <lane id=":clusterJ1_J15_J18_clusterJ14_J20_22_0" index="0" disallow="pedestrian" speed="6.56" length="4.23" shape="194.01,0.52 195.40,1.27 198.03,1.57"/>
    </edge>
    <edge id=":clusterJ1_J15_J18_clusterJ14_J20_23" function="internal">
        <lane id=":clusterJ1_J15_J18_clusterJ14_J20_23_0" index="0" disallow="pedestrian" speed="10.83" length="18.80" shape="184.46,3.94 181.64,9.12 176.70,12.39 169.80,13.46"/>
    </edge>
    <edge id=":clusterJ1_J15_J18_clusterJ14_J20_10" function="internal">
        <lane id=":clusterJ1_J15_J18_clusterJ14_J20_10_0" index="0" disallow="pedestrian" speed="6.74" length="5.66" shape="169.91,2.61 172.32,2.21 174.05,0.97 174.54,-0.01"/>
    </edge>
    <edge id=":clusterJ1_J15_J18_clusterJ14_J20_11" function="internal">
        <lane id=":clusterJ1_J15_J18_clusterJ14_J20_11_0" index="0" disallow="pedestrian" speed="13.89" length="28.23" shape="169.91,2.61 198.03,1.57"/>
        <lane id=":clusterJ1_J15_J18_clusterJ14_J20_11_1" index="1" disallow="pedestrian" speed="13.89" length="28.23" shape="169.89,5.81 198.10,4.77"/>
        <lane id=":clusterJ1_J15_J18_clusterJ14_J20_11_2" index="2" disallow="pedestrian" speed="13.89" length="28.23" shape="169.87,9.01 198.18,7.97"/>
    </edge>
    <edge id=":clusterJ1_J15_J18_clusterJ14_J20_14" function="internal">
        <lane id=":clusterJ1_J15_J18_clusterJ14_J20_14_0" index="0" disallow="pedestrian" speed="10.83" length="8.88" shape="169.87,9.01 177.17,10.09 178.46,10.86"/>
    </edge>
    <edge id=":clusterJ1_J15_J18_clusterJ14_J20_24" function="internal">
        <lane id=":clusterJ1_J15_J18_clusterJ14_J20_24_0" index="0" disallow="pedestrian" speed="6.74" length="4.15" shape="174.54,-0.01 175.08,-1.10 175.43,-4.01"/>
    </edge>
    <edge id=":clusterJ1_J15_J18_clusterJ14_J20_25" function="internal">
        <lane id=":clusterJ1_J15_J18_clusterJ14_J20_25_0" index="0" disallow="pedestrian" speed="10.83" length="17.89" shape="178.46,10.86 182.38,13.21 185.49,18.39 186.51,25.61"/>
    </edge>
    <edge id=":clusterJ1_J15_J18_clusterJ14_J20_15" function="internal">
        <lane id=":clusterJ1_J15_J18_clusterJ14_J20_15_0" index="0" disallow="pedestrian" speed="6.62" length="5.15" shape="175.72,25.57 175.35,23.08 174.24,21.30 173.78,21.04"/>
    </edge>
    <edge id=":clusterJ1_J15_J18_clusterJ14_J20_16" function="internal">
        <lane id=":clusterJ1_J15_J18_clusterJ14_J20_16_0" index="0" disallow="pedestrian" speed="13.89" length="29.59" shape="175.72,25.57 175.43,-4.01"/>
        <lane id=":clusterJ1_J15_J18_clusterJ14_J20_16_1" index="1" disallow="pedestrian" speed="13.89" length="29.59" shape="178.92,25.58 178.63,-4.00"/>
        <lane id=":clusterJ1_J15_J18_clusterJ14_J20_16_2" index="2" disallow="pedestrian" speed="13.89" length="29.59" shape="182.12,25.59 181.83,-4.00"/>
    </edge>
    <edge id=":clusterJ1_J15_J18_clusterJ14_J20_19" function="internal">
        <lane id=":clusterJ1_J15_J18_clusterJ14_J20_19_0" index="0" disallow="pedestrian" speed="10.96" length="8.83" shape="182.12,25.59 183.13,18.02 183.70,16.98"/>
    </edge>
    <edge id=":clusterJ1_J15_J18_clusterJ14_J20_26" function="internal">
        <lane id=":clusterJ1_J15_J18_clusterJ14_J20_26_0" index="0" disallow="pedestrian" speed="6.62" length="4.24" shape="173.78,21.04 172.38,20.23 169.78,19.86"/>
    </edge>
    <edge id=":clusterJ1_J15_J18_clusterJ14_J20_27" function="internal">
        <lane id=":clusterJ1_J15_J18_clusterJ14_J20_27_0" index="0" disallow="pedestrian" speed="10.96" length="18.20" shape="183.70,16.98 186.14,12.55 191.16,9.20 198.18,7.97"/>
    </edge>
    <edge id=":clusterJ1_J15_J18_clusterJ14_J20_c0" function="crossing" crossingEdges="E8 -E8">
        <lane id=":clusterJ1_J15_J18_clusterJ14_J20_c0_0" index="0" allow="pedestrian" speed="2.78" length="21.35" width="4.00" shape="196.00,0.02 196.48,21.36" outlineShape="198.00,-0.03 198.47,21.32 198.47,21.42 198.47,21.31 197.27,21.46 196.28,21.84 195.51,22.44 194.96,23.27 194.62,24.34 194.56,25.09 193.95,-2.18 194.11,-1.74 194.71,-0.97 195.56,-0.42 196.66,-0.11"/>
    </edge>
    <edge id=":clusterJ1_J15_J18_clusterJ14_J20_c1" function="crossing" crossingEdges="E1 -E1">
        <lane id=":clusterJ1_J15_J18_clusterJ14_J20_c1_0" index="0" allow="pedestrian" speed="2.78" length="19.79" width="4.00" shape="173.83,-2.01 193.62,-1.98" outlineShape="173.73,-4.01 193.72,-3.98 193.75,-2.74 194.11,-1.74 194.71,-0.97 195.56,-0.42 195.73,-0.38 193.62,0.02 173.83,-0.01 172.61,-0.01 172.85,-0.23 173.40,-1.21 173.72,-2.47"/>
    </edge>
    <edge id=":clusterJ1_J15_J18_clusterJ14_J20_c2" function="crossing" crossingEdges="-E0.67 E0.67">
        <lane id=":clusterJ1_J15_J18_clusterJ14_J20_c2_0" index="0" allow="pedestrian" speed="2.78" length="20.45" width="4.00" shape="171.78,21.47 171.92,1.02" outlineShape="169.78,21.45 169.92,1.01 171.12,0.88 172.09,0.46 172.85,-0.23 173.40,-1.21 173.92,1.04 173.78,21.48 173.71,23.50 173.64,23.29 173.04,22.50 172.19,21.92 171.11,21.58"/>
    </edge>
    <edge id=":clusterJ1_J15_J18_clusterJ14_J20_c3" function="crossing" crossingEdges="E7 -E7">
        <lane id=":clusterJ1_J15_J18_clusterJ14_J20_c3_0" index="0" allow="pedestrian" speed="2.78" length="20.40" width="4.00" shape="194.52,23.63 174.12,23.57" outlineShape="194.51,25.63 174.11,25.57 174.01,25.57 174.12,25.57 174.00,24.32 173.64,23.29 173.04,22.50 172.19,21.92 171.11,21.58 170.90,21.56 196.80,21.64 194.51,25.63 196.51,25.64 198.52,23.31 198.47,21.31 197.27,21.46 196.80,21.64"/>
    </edge>
    <edge id=":clusterJ1_J15_J18_clusterJ14_J20_w0" function="walkingarea">
        <lane id=":clusterJ1_J15_J18_clusterJ14_J20_w0_0" index="0" allow="pedestrian" speed="2.78" length="3.42" width="4.00" shape="194.51,25.63 196.51,25.64 198.52,23.31 198.47,21.31 197.27,21.46 196.28,21.84 195.51,22.44 194.96,23.27 194.62,24.34"/>
    </edge>
    <edge id=":clusterJ1_J15_J18_clusterJ14_J20_w1" function="walkingarea">
        <lane id=":clusterJ1_J15_J18_clusterJ14_J20_w1_0" index="0" allow="pedestrian" speed="2.78" length="3.45" width="4.00" shape="198.00,-0.03 197.95,-2.03 195.63,-3.97 193.63,-3.98 193.75,-2.74 194.11,-1.74 194.71,-0.97 195.56,-0.42 196.66,-0.11"/>
    </edge>
    <edge id=":clusterJ1_J15_J18_clusterJ14_J20_w2" function="walkingarea">
        <lane id=":clusterJ1_J15_J18_clusterJ14_J20_w2_0" index="0" allow="pedestrian" speed="2.78" length="3.79" width="4.00" shape="173.83,-4.01 171.83,-4.01 169.83,-0.99 169.82,1.01 169.92,1.01 171.12,0.88 172.09,0.46 172.85,-0.23 173.40,-1.21 173.72,-2.47"/>
    </edge>
    <edge id=":clusterJ1_J15_J18_clusterJ14_J20_w3" function="walkingarea">
        <lane id=":clusterJ1_J15_J18_clusterJ14_J20_w3_0" index="0" allow="pedestrian" speed="2.78" length="3.49" width="4.00" shape="169.78,21.46 169.78,23.46 172.12,25.56 174.12,25.57 174.00,24.32 173.64,23.29 173.04,22.50 172.19,21.92 171.11,21.58"/>
    </edge>
    <edge id=":clusterJ27_J34_J35_J37_#1more_0" function="internal">
        <lane id=":clusterJ27_J34_J35_J37_#1more_0_0" index="0" disallow="pedestrian" speed="6.57" length="8.29" shape="98.46,283.13 99.66,281.40 100.05,279.58 99.63,277.67 98.40,275.65"/>
    </edge>
    <edge id=":clusterJ27_J34_J35_J37_#1more_1" function="internal">
        <lane id=":clusterJ27_J34_J35_J37_#1more_1_0" index="0" disallow="pedestrian" speed="13.89" length="9.74" shape="98.46,283.13 100.45,281.21 101.87,279.93 103.09,278.50 104.47,276.15"/>
        <lane id=":clusterJ27_J34_J35_J37_#1more_1_1" index="1" disallow="pedestrian" speed="13.89" length="9.74" shape="100.77,285.34 102.94,283.23 104.48,281.80 105.80,280.21 107.31,277.62"/>
    </edge>
    <edge id=":clusterJ27_J34_J35_J37_#1more_w1" function="walkingarea">
        <lane id=":clusterJ27_J34_J35_J37_#1more_w1_0" index="0" allow="pedestrian" speed="2.78" length="4.06" width="2.00" shape="97.15,276.65 95.58,277.90 95.86,280.64 97.31,282.02 97.93,281.22 98.29,280.38 98.39,279.51 98.23,278.59 97.82,277.64"/>