<?xml version="1.0" encoding="UTF-8"?>

<!-- generated on 2026-02-15T00:30:34.566261+05:30 by Eclipse SUMO sumo 1.26.0
-->

<sumoConfiguration xmlns:xsi="http://www.w3.org/2001/XMLSchema-instance" xsi:noNamespaceSchemaLocation="http://sumo.dlr.de/xsd/sumoConfiguration.xsd">

    <input>
        <net-file value="simple.net.xml"/>
        <route-files value="test.rou.xml"/>
        <junction-taz value="true"/>
    </input>

</sumoConfiguration>
